/*--------------------------------*- C++ -*----------------------------------*\
| =========                 |                                                 |
| \\      /  F ield         | OpenFOAM: The Open Source CFD Toolbox           |
|  \\    /   O peration     | Version:  6                                     |
|   \\  /    A nd           | Web:      www.OpenFOAM.com                      |
|    \\/     M anipulation  |                                                 |
\*---------------------------------------------------------------------------*/
FoamFile
{
    version     2.0;
    format      ascii;
    class       dictionary;
    object      functionObject;
}
// * * * * * * * * * * * * * * * * * * * * * * * * * * * * * * * * * * * * * //

functions
{


outletVelocity
    {
        type            surfaceFieldValue;
        libs            ("libfieldFunctionObjects.so");

        log             true;
        writeControl    writeTime;
        writeFields     true;

        writeFields     true;
        writeArea       true;
        regionType      patch;
        name 		back;

        operation       areaAverage;
        surfaceFormat vtk;

        fields
        (
            U
            p
        );
    }
};
